LTspice 24.1.8 for Windows
Circuit: D:\Uniii\Spring'26\DD II\Project 1\Standard-Cell-Library-Design-and-Characterization-SKY130-\cells.sp
Start Time: Sat Apr  4 20:48:37 2026
No analysis specified.